[TITLE]
;;Project Title/Notes

[OPTIONS]
;;Option             Value
FLOW_UNITS           LPS
INFILTRATION         HORTON
FLOW_ROUTING         KINWAVE
LINK_OFFSETS         DEPTH
MIN_SLOPE            0
ALLOW_PONDING        NO
SKIP_STEADY_STATE    NO

START_DATE           09/12/2014
START_TIME           14:25:00
REPORT_START_DATE    09/12/2014
REPORT_START_TIME    14:25:00
END_DATE             12/07/2015
END_TIME             10:15:00
SWEEP_START          01/01
SWEEP_END            12/31
DRY_DAYS             0
REPORT_STEP          00:05:00
WET_STEP             00:05:00
DRY_STEP             00:05:00
ROUTING_STEP         0:00:30 
RULE_STEP            00:00:00

INERTIAL_DAMPING     PARTIAL
NORMAL_FLOW_LIMITED  BOTH
FORCE_MAIN_EQUATION  H-W
VARIABLE_STEP        0.75
LENGTHENING_STEP     0
MIN_SURFAREA         1.14
MAX_TRIALS           8
HEAD_TOLERANCE       0.0015
SYS_FLOW_TOL         5
LAT_FLOW_TOL         5
MINIMUM_STEP         0.5
THREADS              1

[EVAPORATION]
;;Data Source    Parameters
;;-------------- ----------------
TEMPERATURE 
DRY_ONLY         NO

[TEMPERATURE]
;;Data Element     Values     
FILE               "obs_temp_daily_Neubrandenburg.txt"
WINDSPEED MONTHLY  16 13 15 13 12.5 12.3 10.5 11 11 13 13 16
SNOWMELT           0 0.5 0.6 18 53.5 8
ADC IMPERVIOUS     1.0 1.0 1.0 1.0 1.0 1.0 1.0 1.0 1.0 1.0
ADC PERVIOUS       1.0 1.0 1.0 1.0 1.0 1.0 1.0 1.0 1.0 1.0

[RAINGAGES]
;;Name           Format    Interval SCF      Source    
;;-------------- --------- ------ ------ ----------
RainGage         VOLUME    0:05     1        FILE       "obs_rain_5min_Neubrandenburg.txt" APWXI      MM   

[SUBCATCHMENTS]
;;Name           Rain Gage        Outlet           Area     %Imperv  Width    %Slope   CurbLen  SnowPack        
;;-------------- ---------------- ---------------- -------- -------- -------- -------- -------- ----------------
S1               RainGage         Out1             0.0101   100      10       0.5      0        snowPack1       

[SUBAREAS]
;;Subcatchment   N-Imperv   N-Perv     S-Imperv   S-Perv     PctZero    RouteTo    PctRouted 
;;-------------- ---------- ---------- ---------- ---------- ---------- ---------- ----------
S1               0.001      0.1        9.86       25         0          OUTLET    

[INFILTRATION]
;;Subcatchment   MaxRate    MinRate    Decay      DryTime    MaxInfil  
;;-------------- ---------- ---------- ---------- ---------- ----------
S1               3          0.5        4          7          0         

[LID_CONTROLS]
;;Name           Type/Layer Parameters
;;-------------- ---------- ----------
Gr2              GR
Gr2              SURFACE    5          0.1        0.1        0.5        5         
Gr2              SOIL       108.09     0.56       0.35       0.02       73.71      18.33      34.45     
Gr2              DRAINMAT   9.97       0.55       0.11      

[LID_USAGE]
;;Subcatchment   LID Process      Number  Area       Width      InitSat    FromImp    ToPerv     RptFile                  DrainTo          FromPerv  
;;-------------- ---------------- ------- ---------- ---------- ---------- ---------- ---------- ------------------------ ---------------- ----------
S1               Gr2              1       90.33      12.95      0          0          0          *                        *                0               

[SNOWPACKS]
;;Name           Surface    Parameters
;;-------------- ---------- ----------
snowPack1        PLOWABLE   0.0001     0.0002     4          0.5        0.00       0.00       0.0       
snowPack1        IMPERVIOUS 0.0001     0.0002     4          0.5        0.00       0.00       50        
snowPack1        PERVIOUS   0.0001     0.0002     4          0.5        0.00       0.00       50        
snowPack1        REMOVAL    1.0        0.0        0.0        0.0        0.0        0.0        

[OUTFALLS]
;;Name           Elevation  Type       Stage Data       Gated    Route To        
;;-------------- ---------- ---------- ---------------- -------- ----------------
Out1             0          FREE                        NO                       

[PATTERNS]
;;Name           Type       Multipliers
;;-------------- ---------- -----------
Recovery         MONTHLY    1.5   1.5   1.5   1.5   1.5   1.5  
Recovery                    1.5   1.5   1.5   1.5   1.5   1.5  

[REPORT]
;;Reporting Options
SUBCATCHMENTS ALL
NODES ALL
LINKS ALL

[ADJUSTMENTS]
;;Parameter    Subcatchment     Monthly Adjustments
EVAPORATION                     0.7    0.7    0.7    0.0    0.0    0.0    0.0    0.0    0.0    0.7    0.7    0.7   

[TAGS]

[MAP]
DIMENSIONS 0.000 0.000 10000.000 10000.000
Units      None

[COORDINATES]
;;Node           X-Coord            Y-Coord           
;;-------------- ------------------ ------------------
Out1             3384.528           6666.667          

[VERTICES]
;;Link           X-Coord            Y-Coord           
;;-------------- ------------------ ------------------

[Polygons]
;;Subcatchment   X-Coord            Y-Coord           
;;-------------- ------------------ ------------------
S1               4613.197           6416.382          
S1               4670.080           4232.082          
S1               1985.210           4288.965          
S1               1962.457           6439.135          

[SYMBOLS]
;;Gage           X-Coord            Y-Coord           
;;-------------- ------------------ ------------------
RainGage         1598.407           5426.621          

